opendss_networks/LV17_279bus/Loads.dss
new load.Ld18_LOAD_A phases=1 bus1=B108.1.4 kv=0.249992666559  vminpu=0.1 vmaxpu=2
new load.Ld47_LOAD_B phases=1 bus1=B2135.2.4 kv=0.249992666559  vminpu=0.1 vmaxpu=2
new load.Ld63_LOAD_C phases=1 bus1=B1082.3.4 kv=0.249992666559  vminpu=0.1 vmaxpu=2
new load.Ld65_LOAD_A phases=1 bus1=B2412.1.4 kv=0.249992666559  vminpu=0.1 vmaxpu=2
new load.Ld82_LOAD_B phases=1 bus1=B74.2.4 kv=0.249992666559  vminpu=0.1 vmaxpu=2
new load.Ld111_LOAD_C phases=1 bus1=B2467.3.4 kv=0.249992666559  vminpu=0.1 vmaxpu=2
new load.Ld132_LOAD_A phases=1 bus1=B154.1.4 kv=0.249992666559  vminpu=0.1 vmaxpu=2
new load.Ld153_LOAD_B phases=1 bus1=B2182.2.4 kv=0.249992666559  vminpu=0.1 vmaxpu=2
new load.Ld217_LOAD_C phases=1 bus1=B317.3.4 kv=0.249992666559  vminpu=0.1 vmaxpu=2
new load.Ld238_LOAD_A phases=1 bus1=B593.1.4 kv=0.249992666559  vminpu=0.1 vmaxpu=2
new load.Ld278_LOAD_B phases=1 bus1=B1833.2.4 kv=0.249992666559  vminpu=0.1 vmaxpu=2
new load.Ld300_LOAD_C phases=1 bus1=B1466.3.4 kv=0.249992666559  vminpu=0.1 vmaxpu=2
new load.Ld315_LOAD_A phases=1 bus1=B1072.1.4 kv=0.249992666559  vminpu=0.1 vmaxpu=2
new load.Ld447_LOAD_B phases=1 bus1=B2999.2.4 kv=0.249992666559  vminpu=0.1 vmaxpu=2
new load.Ld502_LOAD_C phases=1 bus1=B1168.3.4 kv=0.249992666559  vminpu=0.1 vmaxpu=2
new load.Ld545_LOAD_A phases=1 bus1=B2475.1.4 kv=0.249992666559  vminpu=0.1 vmaxpu=2
new load.Ld565_LOAD_B phases=1 bus1=B809.2.4 kv=0.249992666559  vminpu=0.1 vmaxpu=2
new load.Ld577_LOAD_C phases=1 bus1=B2085.3.4 kv=0.249992666559  vminpu=0.1 vmaxpu=2
new load.Ld609_LOAD_A phases=1 bus1=B3183.1.4 kv=0.249992666559  vminpu=0.1 vmaxpu=2
new load.Ld635_LOAD_B phases=1 bus1=B2033.2.4 kv=0.249992666559  vminpu=0.1 vmaxpu=2
new load.Ld664_LOAD_C phases=1 bus1=B34.3.4 kv=0.249992666559  vminpu=0.1 vmaxpu=2
new load.Ld787_LOAD_A phases=1 bus1=B769.1.4 kv=0.249992666559  vminpu=0.1 vmaxpu=2
new load.Ld828_LOAD_B phases=1 bus1=B2167.2.4 kv=0.249992666559  vminpu=0.1 vmaxpu=2
new load.Ld840_LOAD_C phases=1 bus1=B549.3.4 kv=0.249992666559  vminpu=0.1 vmaxpu=2
new load.Ld860_LOAD_A phases=1 bus1=B424.1.4 kv=0.249992666559  vminpu=0.1 vmaxpu=2
new load.Ld886_LOAD_B phases=1 bus1=B1860.2.4 kv=0.249992666559  vminpu=0.1 vmaxpu=2
new load.Ld893_LOAD_C phases=1 bus1=B2079.3.4 kv=0.249992666559  vminpu=0.1 vmaxpu=2
new load.Ld951_LOAD_A phases=1 bus1=B727.1.4 kv=0.249992666559  vminpu=0.1 vmaxpu=2
new load.Ld961_LOAD_B phases=1 bus1=B1763.2.4 kv=0.249992666559  vminpu=0.1 vmaxpu=2
new load.Ld1017_LOAD_C phases=1 bus1=B331.3.4 kv=0.249992666559  vminpu=0.1 vmaxpu=2
new load.Ld1025_LOAD_A phases=1 bus1=B1067.1.4 kv=0.249992666559  vminpu=0.1 vmaxpu=2
new load.Ld1032_LOAD_B phases=1 bus1=B1610.2.4 kv=0.249992666559  vminpu=0.1 vmaxpu=2
new load.Ld1104_LOAD_C phases=1 bus1=B2393.3.4 kv=0.249992666559  vminpu=0.1 vmaxpu=2
new load.Ld1151_LOAD_A phases=1 bus1=B1959.1.4 kv=0.249992666559  vminpu=0.1 vmaxpu=2
new load.Ld1170_LOAD_B phases=1 bus1=B2320.2.4 kv=0.249992666559  vminpu=0.1 vmaxpu=2
new load.Ld1172_LOAD_C phases=1 bus1=B1258.3.4 kv=0.249992666559  vminpu=0.1 vmaxpu=2
new load.Ld1196_LOAD_A phases=1 bus1=B2435.1.4 kv=0.249992666559  vminpu=0.1 vmaxpu=2
new load.Ld1290_LOAD_B phases=1 bus1=B2894.2.4 kv=0.249992666559  vminpu=0.1 vmaxpu=2
new load.Ld1302_LOAD_C phases=1 bus1=B2748.3.4 kv=0.249992666559  vminpu=0.1 vmaxpu=2
new load.Ld1326_LOAD_A phases=1 bus1=B2169.1.4 kv=0.249992666559  vminpu=0.1 vmaxpu=2
new load.Ld1351_LOAD_B phases=1 bus1=B1589.2.4 kv=0.249992666559  vminpu=0.1 vmaxpu=2
new load.Ld1403_LOAD_C phases=1 bus1=B1627.3.4 kv=0.249992666559  vminpu=0.1 vmaxpu=2
new load.Ld1404_LOAD_A phases=1 bus1=B2500.1.4 kv=0.249992666559  vminpu=0.1 vmaxpu=2
new load.Ld1447_LOAD_B phases=1 bus1=B780.2.4 kv=0.249992666559  vminpu=0.1 vmaxpu=2
new load.Ld1484_LOAD_C phases=1 bus1=B2245.3.4 kv=0.249992666559  vminpu=0.1 vmaxpu=2
new load.Ld1500_LOAD_A phases=1 bus1=B2166.1.4 kv=0.249992666559  vminpu=0.1 vmaxpu=2
new load.Ld1508_LOAD_B phases=1 bus1=B2557.2.4 kv=0.249992666559  vminpu=0.1 vmaxpu=2
new load.Ld1620_LOAD_C phases=1 bus1=B123.3.4 kv=0.249992666559  vminpu=0.1 vmaxpu=2
new load.Ld1649_LOAD_A phases=1 bus1=B1494.1.4 kv=0.249992666559  vminpu=0.1 vmaxpu=2
new load.Ld1689_LOAD_B phases=1 bus1=B2136.2.4 kv=0.249992666559  vminpu=0.1 vmaxpu=2
new load.Ld1692_LOAD_C phases=1 bus1=B3336.3.4 kv=0.249992666559  vminpu=0.1 vmaxpu=2
new load.Ld1740_LOAD_A phases=1 bus1=B38.1.4 kv=0.249992666559  vminpu=0.1 vmaxpu=2
new load.Ld1741_LOAD_B phases=1 bus1=B2719.2.4 kv=0.249992666559  vminpu=0.1 vmaxpu=2
new load.Ld1754_LOAD_C phases=1 bus1=B826.3.4 kv=0.249992666559  vminpu=0.1 vmaxpu=2
new load.Ld1765_LOAD_A phases=1 bus1=B78.1.4 kv=0.249992666559  vminpu=0.1 vmaxpu=2
new load.Ld1784_LOAD_B phases=1 bus1=B3243.2.4 kv=0.249992666559  vminpu=0.1 vmaxpu=2
new load.Ld1824_LOAD_C phases=1 bus1=B1972.3.4 kv=0.249992666559  vminpu=0.1 vmaxpu=2
new load.Ld1856_LOAD_A phases=1 bus1=B1527.1.4 kv=0.249992666559  vminpu=0.1 vmaxpu=2
new load.Ld1959_LOAD_B phases=1 bus1=B970.2.4 kv=0.249992666559  vminpu=0.1 vmaxpu=2
new load.Ld2016_LOAD_C phases=1 bus1=B413.3.4 kv=0.249992666559  vminpu=0.1 vmaxpu=2
new load.Ld2121_LOAD_A phases=1 bus1=B1707.1.4 kv=0.249992666559  vminpu=0.1 vmaxpu=2
new load.Ld2156_LOAD_B phases=1 bus1=B527.2.4 kv=0.249992666559  vminpu=0.1 vmaxpu=2
new load.Ld2164_LOAD_C phases=1 bus1=B2968.3.4 kv=0.249992666559  vminpu=0.1 vmaxpu=2
new load.Ld2234_LOAD_A phases=1 bus1=B2553.1.4 kv=0.249992666559  vminpu=0.1 vmaxpu=2
new load.Ld2261_LOAD_B phases=1 bus1=B2619.2.4 kv=0.249992666559  vminpu=0.1 vmaxpu=2
new load.Ld2294_LOAD_C phases=1 bus1=B2381.3.4 kv=0.249992666559  vminpu=0.1 vmaxpu=2
new load.Ld2316_LOAD_A phases=1 bus1=B919.1.4 kv=0.249992666559  vminpu=0.1 vmaxpu=2
new load.Ld2321_LOAD_B phases=1 bus1=B1262.2.4 kv=0.249992666559  vminpu=0.1 vmaxpu=2
new load.Ld2333_LOAD_C phases=1 bus1=B2858.3.4 kv=0.249992666559  vminpu=0.1 vmaxpu=2
new load.Ld2340_LOAD_A phases=1 bus1=B857.1.4 kv=0.249992666559  vminpu=0.1 vmaxpu=2
new load.Ld2343_LOAD_B phases=1 bus1=B21.2.4 kv=0.249992666559  vminpu=0.1 vmaxpu=2
new load.Ld2379_LOAD_C phases=1 bus1=B2649.3.4 kv=0.249992666559  vminpu=0.1 vmaxpu=2
new load.Ld2398_LOAD_A phases=1 bus1=B890.1.4 kv=0.249992666559  vminpu=0.1 vmaxpu=2
new load.Ld2456_LOAD_B phases=1 bus1=B705.2.4 kv=0.249992666559  vminpu=0.1 vmaxpu=2
new load.Ld2460_LOAD_C phases=1 bus1=B1294.3.4 kv=0.249992666559  vminpu=0.1 vmaxpu=2
new load.Ld2497_LOAD_A phases=1 bus1=B2601.1.4 kv=0.249992666559  vminpu=0.1 vmaxpu=2
new load.Ld2508_LOAD_B phases=1 bus1=B1869.2.4 kv=0.249992666559  vminpu=0.1 vmaxpu=2
new load.Ld2522_LOAD_C phases=1 bus1=B1848.3.4 kv=0.249992666559  vminpu=0.1 vmaxpu=2
new load.Ld2547_LOAD_A phases=1 bus1=B151.1.4 kv=0.249992666559  vminpu=0.1 vmaxpu=2
new load.Ld2565_LOAD_B phases=1 bus1=B1987.2.4 kv=0.249992666559  vminpu=0.1 vmaxpu=2
new load.Ld2664_LOAD_C phases=1 bus1=B2523.3.4 kv=0.249992666559  vminpu=0.1 vmaxpu=2
new load.Ld2678_LOAD_A phases=1 bus1=B3342.1.4 kv=0.249992666559  vminpu=0.1 vmaxpu=2
new load.Ld2699_LOAD_B phases=1 bus1=B3026.2.4 kv=0.249992666559  vminpu=0.1 vmaxpu=2
new load.Ld2712_LOAD_C phases=1 bus1=B664.3.4 kv=0.249992666559  vminpu=0.1 vmaxpu=2
new load.Ld2716_LOAD_A phases=1 bus1=B3176.1.4 kv=0.249992666559  vminpu=0.1 vmaxpu=2
new load.Ld2750_LOAD_B phases=1 bus1=B1719.2.4 kv=0.249992666559  vminpu=0.1 vmaxpu=2
new load.Ld2754_LOAD_C phases=1 bus1=B2257.3.4 kv=0.249992666559  vminpu=0.1 vmaxpu=2
new load.Ld2759_LOAD_A phases=1 bus1=B2272.1.4 kv=0.249992666559  vminpu=0.1 vmaxpu=2
new load.Ld2810_LOAD_B phases=1 bus1=B2494.2.4 kv=0.249992666559  vminpu=0.1 vmaxpu=2
new load.Ld2820_LOAD_C phases=1 bus1=B497.3.4 kv=0.249992666559  vminpu=0.1 vmaxpu=2
new load.Ld2825_LOAD_A phases=1 bus1=B1743.1.4 kv=0.249992666559  vminpu=0.1 vmaxpu=2
new load.Ld2886_LOAD_B phases=1 bus1=B2662.2.4 kv=0.249992666559  vminpu=0.1 vmaxpu=2
new load.Ld2895_LOAD_C phases=1 bus1=B297.3.4 kv=0.249992666559  vminpu=0.1 vmaxpu=2
new load.Ld2930_LOAD_A phases=1 bus1=B379.1.4 kv=0.249992666559  vminpu=0.1 vmaxpu=2
new load.Ld3151_LOAD_B phases=1 bus1=B2253.2.4 kv=0.249992666559  vminpu=0.1 vmaxpu=2
new load.Ld3171_LOAD_C phases=1 bus1=B2912.3.4 kv=0.249992666559  vminpu=0.1 vmaxpu=2
new load.Ld3213_LOAD_A phases=1 bus1=B687.1.4 kv=0.249992666559  vminpu=0.1 vmaxpu=2
new load.Ld3221_LOAD_B phases=1 bus1=B513.2.4 kv=0.249992666559  vminpu=0.1 vmaxpu=2
new load.Ld3236_LOAD_C phases=1 bus1=B1241.3.4 kv=0.249992666559  vminpu=0.1 vmaxpu=2
new load.Ld3237_LOAD_A phases=1 bus1=B540.1.4 kv=0.249992666559  vminpu=0.1 vmaxpu=2
new load.Ld3273_LOAD_B phases=1 bus1=B1782.2.4 kv=0.249992666559  vminpu=0.1 vmaxpu=2
new load.Ld3274_LOAD_C phases=1 bus1=B235.3.4 kv=0.249992666559  vminpu=0.1 vmaxpu=2
new load.Ld3310_LOAD_A phases=1 bus1=B473.1.4 kv=0.249992666559  vminpu=0.1 vmaxpu=2
new load.Ld3319_LOAD_B phases=1 bus1=B544.2.4 kv=0.249992666559  vminpu=0.1 vmaxpu=2
new load.Ld3384_LOAD_C phases=1 bus1=B3386.3.4 kv=0.249992666559  vminpu=0.1 vmaxpu=2
new load.Ld3440_LOAD_A phases=1 bus1=B1011.1.4 kv=0.249992666559  vminpu=0.1 vmaxpu=2
new load.Ld3448_LOAD_B phases=1 bus1=B1870.2.4 kv=0.249992666559  vminpu=0.1 vmaxpu=2
new load.Ld3466_LOAD_C phases=1 bus1=B869.3.4 kv=0.249992666559  vminpu=0.1 vmaxpu=2
new load.Ld3537_LOAD_A phases=1 bus1=B1264.1.4 kv=0.249992666559  vminpu=0.1 vmaxpu=2
new load.Ld3547_LOAD_B phases=1 bus1=B2304.2.4 kv=0.249992666559  vminpu=0.1 vmaxpu=2
new load.Ld3574_LOAD_C phases=1 bus1=B2302.3.4 kv=0.249992666559  vminpu=0.1 vmaxpu=2
new load.Ld3591_LOAD_A phases=1 bus1=B228.1.4 kv=0.249992666559  vminpu=0.1 vmaxpu=2
new load.Ld3613_LOAD_B phases=1 bus1=B2686.2.4 kv=0.249992666559  vminpu=0.1 vmaxpu=2
new load.Ld3665_LOAD_C phases=1 bus1=B2446.3.4 kv=0.249992666559  vminpu=0.1 vmaxpu=2
new load.Ld3712_LOAD_A phases=1 bus1=B472.1.4 kv=0.249992666559  vminpu=0.1 vmaxpu=2
new load.Ld3722_LOAD_B phases=1 bus1=B878.2.4 kv=0.249992666559  vminpu=0.1 vmaxpu=2
new load.Ld3745_LOAD_C phases=1 bus1=B2132.3.4 kv=0.249992666559  vminpu=0.1 vmaxpu=2
new load.Ld3754_LOAD_A phases=1 bus1=B2505.1.4 kv=0.249992666559  vminpu=0.1 vmaxpu=2
new load.Ld3918_LOAD_B phases=1 bus1=B1273.2.4 kv=0.249992666559  vminpu=0.1 vmaxpu=2
new load.Ld3982_LOAD_C phases=1 bus1=B2852.3.4 kv=0.249992666559  vminpu=0.1 vmaxpu=2
new load.Ld3989_LOAD_A phases=1 bus1=B873.1.4 kv=0.249992666559  vminpu=0.1 vmaxpu=2
new load.Ld3998_LOAD_B phases=1 bus1=B3209.2.4 kv=0.249992666559  vminpu=0.1 vmaxpu=2
new load.Ld4064_LOAD_C phases=1 bus1=B2479.3.4 kv=0.249992666559  vminpu=0.1 vmaxpu=2
new load.Ld4080_LOAD_A phases=1 bus1=B1289.1.4 kv=0.249992666559  vminpu=0.1 vmaxpu=2
new load.Ld4123_LOAD_B phases=1 bus1=B778.2.4 kv=0.249992666559  vminpu=0.1 vmaxpu=2
new load.Ld4126_LOAD_C phases=1 bus1=B2851.3.4 kv=0.249992666559  vminpu=0.1 vmaxpu=2
new load.Ld4145_LOAD_A phases=1 bus1=B2882.1.4 kv=0.249992666559  vminpu=0.1 vmaxpu=2
new load.Ld4152_LOAD_B phases=1 bus1=B1986.2.4 kv=0.249992666559  vminpu=0.1 vmaxpu=2
new load.Ld4229_LOAD_C phases=1 bus1=B2330.3.4 kv=0.249992666559  vminpu=0.1 vmaxpu=2
new load.Ld4233_LOAD_A phases=1 bus1=B2318.1.4 kv=0.249992666559  vminpu=0.1 vmaxpu=2
new load.Ld4302_LOAD_B phases=1 bus1=B1221.2.4 kv=0.249992666559  vminpu=0.1 vmaxpu=2
new load.Ld4325_LOAD_C phases=1 bus1=B1492.3.4 kv=0.249992666559  vminpu=0.1 vmaxpu=2
new load.Ld4361_LOAD_A phases=1 bus1=B2281.1.4 kv=0.249992666559  vminpu=0.1 vmaxpu=2
new load.Ld4371_LOAD_B phases=1 bus1=B2772.2.4 kv=0.249992666559  vminpu=0.1 vmaxpu=2
new load.Ld4413_LOAD_C phases=1 bus1=B2951.3.4 kv=0.249992666559  vminpu=0.1 vmaxpu=2
new load.Ld4422_LOAD_A phases=1 bus1=B581.1.4 kv=0.249992666559  vminpu=0.1 vmaxpu=2
new load.Ld4479_LOAD_B phases=1 bus1=B500.2.4 kv=0.249992666559  vminpu=0.1 vmaxpu=2
new load.Ld4498_LOAD_C phases=1 bus1=B2064.3.4 kv=0.249992666559  vminpu=0.1 vmaxpu=2
new load.Ld4560_LOAD_A phases=1 bus1=B894.1.4 kv=0.249992666559  vminpu=0.1 vmaxpu=2
new load.Ld4654_LOAD_B phases=1 bus1=B3182.2.4 kv=0.249992666559  vminpu=0.1 vmaxpu=2
new load.Ld4669_LOAD_C phases=1 bus1=B3331.3.4 kv=0.249992666559  vminpu=0.1 vmaxpu=2
